/*--------------------------------*- C++ -*----------------------------------*\ 
| =========                 |                                                 |
| \      /  F ield         | OpenFOAM: The Open Source CFD Toolbox           |
|  \    /   O peration     | Version:  v2412                                 |
|   \  /    A nd           | Website:  www.openfoam.com                      |
|    \/     M anipulation  |                                                 |
\*---------------------------------------------------------------------------*/
FoamFile
{
    version     2.0;
    format      ascii;
    class       volScalarField;
    location    "0";
    object      T;
}
// * * * * * * * * * * * * * * * * * * * * * * * * * * * * * * * * * * * * * //

dimensions      [0 0 0 1 0 0 0];


internalField   uniform 320;

boundaryField 
{ 
    inletAir
    {
        type    fixedValue;
        value   uniform 320;
    }
    inletH2
    {
        type    fixedValue;
        value   uniform 320;
    }
    wall
    {
        type    fixedValue;
        value   uniform 320;
    }
    outlet
    {
        type    zeroGradient;
    }
    wedgeLeft_1
    {
        type    cyclicAMI;
    }
    wedgeRight_1
    {
        type    cyclicAMI;
    }
} 


// ************************************************************************* //